Version 4
SHEET 1 1800 1288
WIRE 928 -112 928 -144
WIRE 1056 -112 928 -112
WIRE 736 -96 736 -128
WIRE 928 -96 928 -112
WIRE 1056 -80 1056 -112
WIRE 48 -48 -288 -48
WIRE 48 0 48 -48
WIRE 736 16 736 -16
WIRE 736 16 480 16
WIRE 928 32 928 -16
WIRE 1056 32 1056 -16
WIRE 1056 32 928 32
WIRE 288 80 288 0
WIRE 480 80 480 16
WIRE 736 80 736 16
WIRE 48 128 48 80
WIRE 224 128 48 128
WIRE 608 128 544 128
WIRE 928 128 928 32
WIRE 928 128 800 128
WIRE -288 176 -288 -48
WIRE 1296 192 1296 -160
WIRE 48 208 48 128
WIRE 288 208 288 176
WIRE 384 208 288 208
WIRE 480 208 480 176
WIRE 480 208 384 208
WIRE 736 240 736 176
WIRE 1232 240 736 240
WIRE 384 288 384 208
WIRE -288 320 -288 256
WIRE 48 320 48 288
WIRE 384 416 384 368
WIRE 736 448 736 240
WIRE 928 448 928 128
WIRE 1296 480 1296 288
WIRE -384 496 -384 448
WIRE 1296 592 1296 560
WIRE 1296 592 400 592
WIRE 1440 592 1296 592
WIRE 1696 592 1520 592
WIRE 1744 592 1696 592
WIRE -384 608 -384 576
WIRE -240 608 -384 608
WIRE 176 608 176 560
WIRE -384 640 -384 608
WIRE -240 640 -240 608
WIRE 400 640 400 592
WIRE 1296 640 1296 592
WIRE 1696 656 1696 592
WIRE 736 672 736 512
WIRE 176 752 176 688
WIRE 272 752 176 752
WIRE 400 752 400 720
WIRE 400 752 352 752
WIRE 608 752 608 128
WIRE 608 752 400 752
WIRE 1296 768 1296 720
WIRE -384 784 -384 720
WIRE 400 784 400 752
WIRE 1696 784 1696 736
WIRE 176 816 176 752
WIRE 736 816 736 736
WIRE 1232 816 736 816
WIRE 736 864 736 816
WIRE 400 912 400 864
WIRE 928 912 928 528
WIRE 928 912 800 912
WIRE 1056 912 928 912
WIRE 176 944 176 896
WIRE 928 960 928 912
WIRE 1056 976 1056 912
WIRE 736 1008 736 960
WIRE 928 1104 928 1040
WIRE 1056 1104 1056 1040
WIRE 1056 1104 928 1104
WIRE 928 1152 928 1104
WIRE 1296 1152 1296 864
WIRE 736 1168 736 1088
FLAG 48 320 0
FLAG 384 416 0
FLAG 288 0 +12v
FLAG 48 -48 sig_in
FLAG 736 -128 +12v
FLAG 928 -144 +12v
FLAG 736 1168 -12v
FLAG 928 1152 -12v
FLAG 1296 -160 +12v
FLAG 1744 592 out
FLAG 1296 1152 -12v
FLAG 1696 784 0
FLAG 400 912 0
FLAG 176 944 -12v
FLAG 176 560 +12v
FLAG -288 320 0
FLAG -240 640 0
FLAG -384 784 -12v
FLAG -384 448 +12v
SYMBOL res 32 -16 R0
SYMATTR InstName RV1_top
SYMATTR Value 0.1k
SYMBOL res 32 192 R0
SYMATTR InstName RV1_bot
SYMATTR Value 9.9k
SYMBOL npn2 224 80 R0
SYMATTR InstName Q1
SYMATTR Value 2N3904
SYMBOL res 368 272 R0
SYMATTR InstName R2
SYMATTR Value 600
SYMBOL npn2 544 80 M0
SYMATTR InstName Q2
SYMATTR Value 2N3904
SYMBOL res 720 -112 R0
SYMATTR InstName R5
SYMATTR Value 260
SYMBOL pnp 800 176 R180
SYMATTR InstName Q3
SYMATTR Value 2N3906
SYMBOL diode 720 448 R0
SYMATTR InstName D1
SYMATTR Value 1N4148
SYMBOL diode 720 672 R0
SYMATTR InstName D2
SYMATTR Value 1N4148
SYMBOL res 912 -112 R0
SYMATTR InstName R7
SYMATTR Value 3.2k
SYMBOL cap 1040 -80 R0
SYMATTR InstName C1
SYMATTR Value 0.1µ
SYMBOL npn2 800 864 M0
SYMATTR InstName Q4
SYMATTR Value 2N3904
SYMBOL res 720 992 R0
SYMATTR InstName R6
SYMATTR Value 260
SYMBOL res 912 944 R0
SYMATTR InstName R9
SYMATTR Value 3.2k
SYMBOL cap 1040 976 R0
SYMATTR InstName C2
SYMATTR Value 0.1µ
SYMBOL pnp 1232 864 M180
SYMATTR InstName Q6
SYMATTR Value 2N3906
SYMBOL res 1280 624 R0
SYMATTR InstName R11
SYMATTR Value 5
SYMBOL res 1280 464 R0
SYMATTR InstName R10
SYMATTR Value 5
SYMBOL npn2 1232 192 R0
SYMATTR InstName Q5
SYMATTR Value 2N3904
SYMBOL res 1536 576 R90
WINDOW 0 0 56 VBottom 2
WINDOW 3 32 56 VTop 2
SYMATTR InstName R12
SYMATTR Value 47
SYMBOL res 1680 640 R0
SYMATTR InstName R13
SYMATTR Value 50
SYMBOL res 384 624 R0
SYMATTR InstName R3
SYMATTR Value 11.4k
SYMBOL res 384 768 R0
SYMATTR InstName R4
SYMATTR Value 600
SYMBOL res 368 736 R90
WINDOW 0 0 56 VBottom 2
WINDOW 3 32 56 VTop 2
SYMATTR InstName R14
SYMATTR Value 1Meg
SYMBOL res 160 592 R0
SYMATTR InstName RV2_top
SYMATTR Value 10k
SYMBOL res 160 800 R0
SYMATTR InstName RV2_bot
SYMATTR Value 10k
SYMBOL res 912 432 R0
SYMATTR InstName R8
SYMATTR Value 17.6k
SYMBOL voltage -288 160 R0
WINDOW 123 24 124 Left 2
WINDOW 39 0 0 Left 0
SYMATTR InstName V1
SYMATTR Value SINE(0 0.1 20k)
SYMATTR Value2 AC 1
SYMBOL voltage -384 480 R0
SYMATTR InstName V2
SYMATTR Value 12
SYMBOL voltage -384 624 R0
SYMATTR InstName V3
SYMATTR Value 12
TEXT -418 1270 Left 2 !.tran 0 1m 0 1u
