Version 4
SHEET 1 1840 1668
WIRE 928 -112 928 -144
WIRE 1056 -112 928 -112
WIRE 736 -96 736 -128
WIRE 928 -96 928 -112
WIRE 1056 -80 1056 -112
WIRE 48 -48 -512 -48
WIRE 48 0 48 -48
WIRE 736 16 736 -16
WIRE 736 16 480 16
WIRE 928 32 928 -16
WIRE 1056 32 1056 -16
WIRE 1056 32 928 32
WIRE 288 80 288 0
WIRE 480 80 480 16
WIRE 736 80 736 16
WIRE 48 128 48 80
WIRE 224 128 48 128
WIRE 608 128 544 128
WIRE 928 128 928 32
WIRE 928 128 800 128
WIRE -512 176 -512 -48
WIRE 1296 192 1296 -160
WIRE 48 208 48 128
WIRE 288 208 288 176
WIRE 384 208 288 208
WIRE 480 208 480 176
WIRE 480 208 384 208
WIRE 736 240 736 176
WIRE 1232 240 736 240
WIRE -512 288 -512 256
WIRE -288 288 -288 256
WIRE -288 288 -512 288
WIRE 384 288 384 208
WIRE -288 320 -288 288
WIRE 48 320 48 288
WIRE 384 400 384 368
WIRE 736 416 736 240
WIRE 928 416 928 128
WIRE 1296 416 1296 288
WIRE -384 496 -384 448
WIRE 496 560 400 560
WIRE 1296 560 1296 496
WIRE 1296 560 496 560
WIRE 1440 560 1296 560
WIRE 1696 560 1520 560
WIRE 1744 560 1696 560
WIRE 176 576 176 528
WIRE -384 608 -384 576
WIRE -240 608 -384 608
WIRE 400 608 400 560
WIRE 496 608 496 560
WIRE 1296 608 1296 560
WIRE 1696 624 1696 560
WIRE -384 640 -384 608
WIRE -240 640 -240 608
WIRE 736 640 736 480
WIRE 176 720 176 656
WIRE 272 720 176 720
WIRE 400 720 400 688
WIRE 400 720 352 720
WIRE 496 720 496 672
WIRE 496 720 400 720
WIRE 608 720 608 128
WIRE 608 720 496 720
WIRE 1296 736 1296 688
WIRE 400 752 400 720
WIRE 1696 752 1696 704
WIRE -384 784 -384 720
WIRE 176 784 176 720
WIRE 736 784 736 704
WIRE 1232 784 736 784
WIRE 736 832 736 784
WIRE 400 880 400 832
WIRE 928 880 928 496
WIRE 928 880 800 880
WIRE 1056 880 928 880
WIRE 176 912 176 864
WIRE 928 928 928 880
WIRE 1056 944 1056 880
WIRE 736 976 736 928
WIRE 928 1072 928 1008
WIRE 1056 1072 1056 1008
WIRE 1056 1072 928 1072
WIRE 928 1120 928 1072
WIRE 1296 1120 1296 832
WIRE 736 1136 736 1056
FLAG 48 320 0
FLAG 288 0 +12v
FLAG 48 -48 sig_in
FLAG 736 -128 +12v
FLAG 928 -144 +12v
FLAG 736 1136 -12v
FLAG 928 1120 -12v
FLAG 1296 -160 +12v
FLAG 1744 560 out
FLAG 1296 1120 -12v
FLAG 1696 752 0
FLAG 400 880 0
FLAG 176 912 -12v
FLAG 176 528 +12v
FLAG -288 320 0
FLAG -240 640 0
FLAG -384 784 -12v
FLAG -384 448 +12v
FLAG 384 400 -12v
SYMBOL res 32 -16 R0
SYMATTR InstName RV1_top
SYMATTR Value 0.1k
SYMBOL res 32 192 R0
SYMATTR InstName RV1_bot
SYMATTR Value 9.9k
SYMBOL npn2 224 80 R0
SYMATTR InstName Q1
SYMATTR Value 2N3904
SYMBOL res 368 272 R0
SYMATTR InstName R2
SYMATTR Value 620
SYMBOL npn2 544 80 M0
SYMATTR InstName Q2
SYMATTR Value 2N3904
SYMBOL res 720 -112 R0
SYMATTR InstName R5
SYMATTR Value 260
SYMBOL pnp 800 176 R180
SYMATTR InstName Q3
SYMATTR Value 2N3906
SYMBOL diode 720 416 R0
SYMATTR InstName D1
SYMATTR Value 1N4148
SYMBOL diode 720 640 R0
SYMATTR InstName D2
SYMATTR Value 1N4148
SYMBOL res 912 -112 R0
SYMATTR InstName R7
SYMATTR Value 5.1k
SYMBOL cap 1040 -80 R0
SYMATTR InstName C1
SYMATTR Value 0.1µ
SYMBOL npn2 800 832 M0
SYMATTR InstName Q4
SYMATTR Value 2N3904
SYMBOL res 720 960 R0
SYMATTR InstName R6
SYMATTR Value 270
SYMBOL res 912 912 R0
SYMATTR InstName R9
SYMATTR Value 3.3k
SYMBOL cap 1040 944 R0
SYMATTR InstName C2
SYMATTR Value 0.1µ
SYMBOL pnp 1232 832 M180
SYMATTR InstName Q6
SYMATTR Value 2N2907
SYMBOL res 1280 592 R0
SYMATTR InstName R11
SYMATTR Value 5.1
SYMBOL res 1280 400 R0
SYMATTR InstName R10
SYMATTR Value 5.1
SYMBOL npn2 1232 192 R0
SYMATTR InstName Q5
SYMATTR Value 2N2222
SYMBOL res 1536 544 R90
WINDOW 0 0 56 VBottom 2
WINDOW 3 32 56 VTop 2
SYMATTR InstName R12
SYMATTR Value 47
SYMBOL res 1680 608 R0
SYMATTR InstName R13
SYMATTR Value 50
SYMBOL res 384 592 R0
SYMATTR InstName R3
SYMATTR Value 12k
SYMBOL res 384 736 R0
SYMATTR InstName R4
SYMATTR Value 620
SYMBOL res 368 704 R90
WINDOW 0 0 56 VBottom 2
WINDOW 3 32 56 VTop 2
SYMATTR InstName R14
SYMATTR Value 1Meg
SYMBOL res 160 560 R0
SYMATTR InstName RV2_top
SYMATTR Value 5k
SYMBOL res 160 768 R0
SYMATTR InstName RV2_bot
SYMATTR Value 5k
SYMBOL res 912 400 R0
SYMATTR InstName R8
SYMATTR Value 18k
SYMBOL voltage -288 160 R0
WINDOW 123 24 124 Left 2
WINDOW 39 0 0 Left 0
SYMATTR Value2 AC 1
SYMATTR InstName V1
SYMATTR Value SINE(0 0.3 1k)
SYMBOL voltage -384 480 R0
SYMATTR InstName V2
SYMATTR Value 12
SYMBOL voltage -384 624 R0
SYMATTR InstName V3
SYMATTR Value 12
SYMBOL voltage -512 160 R0
WINDOW 3 -485 96 Left 2
WINDOW 123 -485 124 Left 2
WINDOW 39 0 0 Left 0
SYMATTR Value PULSE(-0.15 0.15 1u 1n 1n 10u 15u 1)
SYMATTR Value2 AC 1
SYMATTR InstName V4
SYMBOL cap 480 608 R0
SYMATTR InstName C3
SYMATTR Value 1p
TEXT -416 1272 Left 2 !.tran 0 2u 0 1n
TEXT -424 1312 Left 2 !;.ac dec 1000 20k 100Meg
TEXT -400 1216 Left 2 !;.four 1k 5 V(out)
