Version 4
SHEET 1 1840 1668
WIRE 928 -112 928 -144
WIRE 1056 -112 928 -112
WIRE 736 -96 736 -128
WIRE 928 -96 928 -112
WIRE 1056 -80 1056 -112
WIRE -640 -48 -976 -48
WIRE -640 0 -640 -48
WIRE 736 16 736 -16
WIRE 736 16 -208 16
WIRE 928 32 928 -16
WIRE 1056 32 1056 -16
WIRE 1056 32 928 32
WIRE -400 80 -400 0
WIRE -208 80 -208 16
WIRE 736 80 736 16
WIRE -976 112 -976 -48
WIRE -976 112 -1040 112
WIRE -640 128 -640 80
WIRE -464 128 -640 128
WIRE -96 128 -144 128
WIRE 464 128 64 128
WIRE 480 128 464 128
WIRE 928 128 928 32
WIRE 928 128 800 128
WIRE -976 176 -976 112
WIRE 1296 192 1296 -160
WIRE -640 208 -640 128
WIRE -400 208 -400 176
WIRE -304 208 -400 208
WIRE -208 208 -208 176
WIRE -208 208 -304 208
WIRE 480 240 480 128
WIRE 736 240 736 176
WIRE 1232 240 736 240
WIRE 64 256 64 128
WIRE 64 256 -64 256
WIRE 288 256 288 208
WIRE -1040 288 -1040 112
WIRE -976 288 -976 256
WIRE -976 288 -1040 288
WIRE -304 288 -304 208
WIRE 64 288 64 256
WIRE -64 304 -64 256
WIRE -976 320 -976 288
WIRE -640 320 -640 288
WIRE 480 352 480 320
WIRE -96 400 -96 128
WIRE -64 400 -64 368
WIRE -64 400 -96 400
WIRE 64 400 64 368
WIRE 64 400 -64 400
WIRE 112 400 64 400
WIRE 288 400 288 336
WIRE 288 400 192 400
WIRE -304 416 -304 368
WIRE 64 432 64 400
WIRE 288 464 288 400
WIRE 64 560 64 512
WIRE 288 592 288 544
WIRE 736 624 736 240
WIRE 928 624 928 128
WIRE 1296 624 1296 288
WIRE 1296 768 1296 704
WIRE 1296 768 1200 768
WIRE 1440 768 1296 768
WIRE 1696 768 1520 768
WIRE 1744 768 1696 768
WIRE -416 816 -416 768
WIRE 1296 816 1296 768
WIRE 1696 832 1696 768
WIRE 736 848 736 688
WIRE -416 928 -416 896
WIRE -272 928 -416 928
WIRE 1296 944 1296 896
WIRE -416 960 -416 928
WIRE -272 960 -272 928
WIRE 1696 960 1696 912
WIRE 736 992 736 912
WIRE 1232 992 736 992
WIRE 736 1040 736 992
WIRE 928 1088 928 704
WIRE 928 1088 800 1088
WIRE 1056 1088 928 1088
WIRE -416 1104 -416 1040
WIRE 928 1136 928 1088
WIRE 1056 1152 1056 1088
WIRE 736 1184 736 1136
WIRE 928 1280 928 1216
WIRE 1056 1280 1056 1216
WIRE 1056 1280 928 1280
WIRE 928 1328 928 1280
WIRE 1296 1328 1296 1040
WIRE 736 1344 736 1264
FLAG -640 320 0
FLAG -400 0 +12v
FLAG 464 128 sig_in
FLAG 736 -128 +12v
FLAG 928 -144 +12v
FLAG 736 1344 -12v
FLAG 928 1328 -12v
FLAG 1296 -160 +12v
FLAG 1744 768 out
FLAG 1296 1328 -12v
FLAG 1696 960 0
FLAG 64 560 0
FLAG 288 592 -12v
FLAG 288 208 +12v
FLAG -976 320 0
FLAG -272 960 0
FLAG -416 1104 -12v
FLAG -416 768 +12v
FLAG -304 416 -12v
FLAG 1200 768 sig_out
FLAG 480 352 0
SYMBOL res -656 -16 R0
SYMATTR InstName RV1_top
SYMATTR Value 0.1k
SYMBOL res -656 192 R0
SYMATTR InstName RV1_bot
SYMATTR Value 9.9k
SYMBOL npn2 -464 80 R0
SYMATTR InstName Q1
SYMATTR Value 2N3904
SYMBOL res -320 272 R0
SYMATTR InstName R2
SYMATTR Value 620
SYMBOL npn2 -144 80 M0
SYMATTR InstName Q2
SYMATTR Value 2N3904
SYMBOL res 720 -112 R0
SYMATTR InstName R5
SYMATTR Value 270
SYMBOL pnp 800 176 R180
SYMATTR InstName Q3
SYMATTR Value 2N3906
SYMBOL diode 720 624 R0
SYMATTR InstName D1
SYMATTR Value 1N4148
SYMBOL diode 720 848 R0
SYMATTR InstName D2
SYMATTR Value 1N4148
SYMBOL res 912 -112 R0
SYMATTR InstName R7
SYMATTR Value 5.1k
SYMBOL cap 1040 -80 R0
SYMATTR InstName C1
SYMATTR Value 0.1µ
SYMBOL npn2 800 1040 M0
SYMATTR InstName Q4
SYMATTR Value 2N3904
SYMBOL res 720 1168 R0
SYMATTR InstName R6
SYMATTR Value 270
SYMBOL res 912 1120 R0
SYMATTR InstName R9
SYMATTR Value 3.3k
SYMBOL cap 1040 1152 R0
SYMATTR InstName C2
SYMATTR Value 0.1µ
SYMBOL pnp 1232 1040 M180
SYMATTR InstName Q6
SYMATTR Value 2N2907
SYMBOL res 1280 800 R0
SYMATTR InstName R11
SYMATTR Value 5.1
SYMBOL res 1280 608 R0
SYMATTR InstName R10
SYMATTR Value 5.1
SYMBOL npn2 1232 192 R0
SYMATTR InstName Q5
SYMATTR Value 2N2222
SYMBOL res 1536 752 R90
WINDOW 0 0 56 VBottom 2
WINDOW 3 32 56 VTop 2
SYMATTR InstName R12
SYMATTR Value 47
SYMBOL res 1680 816 R0
SYMATTR InstName R13
SYMATTR Value 50
SYMBOL res 80 272 M0
SYMATTR InstName R3
SYMATTR Value 12k
SYMBOL res 80 416 M0
SYMATTR InstName R4
SYMATTR Value 620
SYMBOL res 96 384 M90
WINDOW 0 0 56 VBottom 2
WINDOW 3 32 56 VTop 2
SYMATTR InstName R14
SYMATTR Value 1Meg
SYMBOL res 304 240 M0
SYMATTR InstName RV2_top
SYMATTR Value 10k
SYMBOL res 304 448 M0
SYMATTR InstName RV2_bot
SYMATTR Value 10k
SYMBOL res 912 608 R0
SYMATTR InstName R8
SYMATTR Value 18k
SYMBOL voltage -976 160 R0
WINDOW 123 24 124 Left 2
WINDOW 39 0 0 Left 0
SYMATTR Value2 AC 1
SYMATTR InstName V1
SYMATTR Value SINE(0 0.3 1Meg)
SYMBOL voltage -416 800 R0
SYMATTR InstName V2
SYMATTR Value 12
SYMBOL voltage -416 944 R0
SYMATTR InstName V3
SYMATTR Value 12
SYMBOL voltage 480 224 R0
WINDOW 3 24 152 Left 2
WINDOW 123 24 124 Left 2
WINDOW 39 0 0 Left 0
SYMATTR InstName V4
SYMATTR Value -0.2
SYMATTR Value2 AC 1
SYMBOL cap -80 304 R0
SYMATTR InstName C3
SYMATTR Value 1p
TEXT -416 1272 Left 2 !;.tran 0 10u 0 10n
TEXT -424 1312 Left 2 !.ac dec 1000 10 100Meg
TEXT -56 1192 Left 2 !.op
