Version 4
SHEET 1 880 680
WIRE 96 -160 -48 -160
WIRE 320 -160 160 -160
WIRE -448 -96 -448 -128
WIRE 160 -48 112 -48
WIRE 320 -48 320 -160
WIRE 320 -48 240 -48
WIRE -448 16 -448 -16
WIRE -352 16 -448 16
WIRE -352 32 -352 16
WIRE -448 48 -448 16
WIRE 192 112 192 80
WIRE -192 128 -224 128
WIRE -48 128 -48 -160
WIRE -48 128 -112 128
WIRE 0 128 -48 128
WIRE 112 128 112 -48
WIRE 112 128 80 128
WIRE 160 128 112 128
WIRE 320 144 320 -48
WIRE 320 144 224 144
WIRE 160 160 128 160
WIRE -448 176 -448 128
WIRE -224 192 -224 128
WIRE 128 208 128 160
WIRE 192 224 192 176
WIRE -192 352 -224 352
WIRE -48 352 -112 352
WIRE 64 352 16 352
WIRE -224 400 -224 352
WIRE 64 400 64 352
FLAG 192 80 +12v
FLAG 192 224 -12v
FLAG -224 192 0
FLAG 128 208 0
FLAG 64 400 0
FLAG -224 400 0
FLAG -352 32 0
FLAG -448 176 -12v
FLAG -448 -128 +12v
SYMBOL Opamps\\OP07 192 80 R0
SYMATTR InstName U1
SYMBOL res 256 -64 R90
WINDOW 0 0 56 VBottom 2
WINDOW 3 32 56 VTop 2
SYMATTR InstName R1
SYMATTR Value 9k
SYMBOL res 96 112 R90
WINDOW 0 0 56 VBottom 2
WINDOW 3 32 56 VTop 2
SYMATTR InstName R2
SYMATTR Value 1k
SYMBOL cap 160 -176 R90
WINDOW 0 0 32 VBottom 2
WINDOW 3 32 32 VTop 2
SYMATTR InstName C1
SYMATTR Value 1µ
SYMATTR SpiceLine IC=0
SYMBOL current -192 128 R270
WINDOW 0 32 40 VTop 2
WINDOW 3 -32 40 VBottom 2
WINDOW 123 0 0 Left 0
WINDOW 39 0 0 Left 0
SYMATTR InstName I1
SYMATTR Value 10m
SYMBOL current -192 352 R270
WINDOW 0 32 40 VTop 2
WINDOW 3 -32 40 VBottom 2
SYMATTR InstName I2
SYMATTR Value 10m
SYMBOL cap 16 336 R90
WINDOW 0 0 32 VBottom 2
WINDOW 3 32 32 VTop 2
SYMATTR InstName C2
SYMATTR Value 1µ
SYMATTR SpiceLine IC=0
SYMBOL voltage -448 -112 R0
SYMATTR InstName V1
SYMATTR Value 12
SYMBOL voltage -448 32 R0
SYMATTR InstName V2
SYMATTR Value 12
TEXT -252 496 Left 2 !.tran 0 1m 0 1n
