Version 4
SHEET 1 880 680
WIRE 96 -160 -48 -160
WIRE 688 -160 160 -160
WIRE -448 -96 -448 -128
WIRE 528 -48 480 -48
WIRE 688 -48 688 -160
WIRE 688 -48 608 -48
WIRE 272 -32 64 -32
WIRE -448 16 -448 -16
WIRE -352 16 -448 16
WIRE -352 32 -352 16
WIRE -448 48 -448 16
WIRE 160 96 160 64
WIRE 64 112 64 -32
WIRE 128 112 64 112
WIRE 560 112 560 80
WIRE -192 128 -224 128
WIRE -48 128 -112 128
WIRE 272 128 272 -32
WIRE 272 128 192 128
WIRE 368 128 272 128
WIRE 480 128 480 -48
WIRE 480 128 448 128
WIRE 528 128 480 128
WIRE -48 144 -48 128
WIRE 128 144 -48 144
WIRE 688 144 688 -48
WIRE 688 144 592 144
WIRE 528 160 496 160
WIRE -448 176 -448 128
WIRE -224 192 -224 128
WIRE 160 208 160 160
WIRE 496 208 496 160
WIRE 560 224 560 176
FLAG 560 80 +12v
FLAG 560 224 -12v
FLAG -224 192 0
FLAG -352 32 0
FLAG -448 176 -12v
FLAG -448 -128 +12v
FLAG 160 64 +12v
FLAG 160 208 -12v
FLAG 496 208 0
SYMBOL Opamps\\OP07 560 80 R0
SYMATTR InstName U1
SYMBOL res 624 -64 R90
WINDOW 0 0 56 VBottom 2
WINDOW 3 32 56 VTop 2
SYMATTR InstName R1
SYMATTR Value 10Meg
SYMBOL res 464 112 R90
WINDOW 0 0 56 VBottom 2
WINDOW 3 32 56 VTop 2
SYMATTR InstName R2
SYMATTR Value 10k
SYMBOL cap 160 -176 R90
WINDOW 0 0 32 VBottom 2
WINDOW 3 32 32 VTop 2
SYMATTR InstName C1
SYMATTR Value 150n
SYMATTR SpiceLine IC=0
SYMBOL current -192 128 R270
WINDOW 0 32 40 VTop 2
WINDOW 3 -32 40 VBottom 2
WINDOW 123 -60 40 VBottom 2
WINDOW 39 0 0 Left 0
SYMATTR InstName I1
SYMATTR Value 10m
SYMATTR Value2 AC 1
SYMBOL voltage -448 -112 R0
SYMATTR InstName V1
SYMATTR Value 12
SYMBOL voltage -448 32 R0
SYMATTR InstName V2
SYMATTR Value 12
SYMBOL Opamps\\OP07 160 64 R0
SYMATTR InstName U2
TEXT -256 496 Left 2 !;tran 0 1m 0 1n
TEXT -256 464 Left 2 !.ac dec 1000 10 100Meg
