Version 4
SHEET 1 1172 680
WIRE 544 -336 544 -368
WIRE 816 -336 544 -336
WIRE 544 -304 544 -336
WIRE 816 -304 816 -336
WIRE 544 -176 544 -224
WIRE 816 -176 816 -224
WIRE 640 -128 608 -128
WIRE 752 -128 640 -128
WIRE 544 -48 544 -80
WIRE 640 -48 640 -128
WIRE 640 -48 544 -48
WIRE 816 0 816 -80
WIRE 912 0 816 0
WIRE 1024 0 912 0
WIRE 1152 0 1104 0
WIRE 1152 32 1152 0
WIRE 912 80 816 80
WIRE 1024 80 912 80
WIRE 1152 80 1104 80
WIRE 1152 112 1152 80
WIRE 128 128 128 96
WIRE 544 160 544 -48
WIRE 816 160 816 80
WIRE -176 176 -176 144
WIRE 320 176 320 144
WIRE 288 192 256 192
WIRE 480 208 352 208
WIRE 752 208 480 208
WIRE 128 224 128 208
WIRE 288 224 128 224
WIRE 128 256 128 224
WIRE -176 288 -176 256
WIRE -64 288 -176 288
WIRE 256 288 256 192
WIRE 544 288 544 256
WIRE 544 288 256 288
WIRE -176 320 -176 288
WIRE -64 320 -64 288
WIRE 320 320 320 240
WIRE 544 320 544 288
WIRE 816 320 816 256
WIRE 128 384 128 336
WIRE 544 432 544 400
WIRE 816 432 816 400
WIRE 816 432 544 432
WIRE -176 448 -176 400
WIRE 544 464 544 432
FLAG 128 384 -12v
FLAG 128 96 +12v
FLAG 544 464 -12v
FLAG 912 0 i_source
FLAG 912 80 i_sink
FLAG 544 -368 +12v
FLAG 320 320 -12v
FLAG 320 144 +12v
FLAG 1152 32 0
FLAG 1152 112 0
FLAG -64 320 0
FLAG -176 144 +12v
FLAG -176 448 -12v
SYMBOL res 112 112 R0
SYMATTR InstName R1
SYMATTR Value 7.5k
SYMBOL res 112 240 R0
SYMATTR InstName R2
SYMATTR Value 2.5k
SYMBOL Opamps\\OP07 320 144 R0
SYMATTR InstName U1
SYMBOL npn 480 160 R0
SYMATTR InstName Q1
SYMATTR Value 2N3904
SYMBOL npn 752 160 R0
SYMATTR InstName Q2
SYMATTR Value 2N3904
SYMBOL res 528 304 R0
SYMATTR InstName R3
SYMATTR Value 1k
SYMBOL res 800 304 R0
SYMATTR InstName R4
SYMATTR Value 1k
SYMBOL pnp 608 -80 R180
SYMATTR InstName Q3
SYMATTR Value 2N3906
SYMBOL pnp 752 -80 M180
SYMATTR InstName Q4
SYMATTR Value 2N3906
SYMBOL res 528 -320 R0
SYMATTR InstName R5
SYMATTR Value 1k
SYMBOL res 800 -320 R0
SYMATTR InstName R6
SYMATTR Value 1k
SYMBOL res 1008 16 R270
WINDOW 0 32 56 VTop 2
WINDOW 3 0 56 VBottom 2
SYMATTR InstName R7
SYMATTR Value 100
SYMBOL res 1008 96 R270
WINDOW 0 32 56 VTop 2
WINDOW 3 0 56 VBottom 2
SYMATTR InstName R8
SYMATTR Value 100
SYMBOL voltage -176 160 R0
SYMATTR InstName V1
SYMATTR Value 12
SYMBOL voltage -176 304 R0
SYMATTR InstName V2
SYMATTR Value 12
TEXT 98 566 Left 2 !.tran 0 1m 0 1u
