Version 4
SHEET 1 880 820
WIRE 240 128 240 48
WIRE 240 256 240 208
WIRE 192 320 -80 320
WIRE 240 400 240 352
WIRE 480 400 240 400
WIRE -80 416 -80 320
WIRE 240 448 240 400
WIRE 192 512 128 512
WIRE -80 528 -80 496
WIRE 240 560 240 544
WIRE 128 672 128 512
WIRE 240 672 240 640
WIRE 240 672 128 672
WIRE 240 720 240 672
FLAG 240 48 +12v
FLAG 240 720 -12v
FLAG -80 528 0
SYMBOL njf 192 256 R0
SYMATTR InstName J1
SYMATTR Value J310
SYMBOL res 224 544 R0
SYMATTR InstName R1
SYMATTR Value 300
SYMBOL res 224 112 R0
SYMATTR InstName R2
SYMATTR Value 1k
SYMBOL njf 192 448 R0
SYMATTR InstName J2
SYMATTR Value J310
SYMBOL voltage -80 400 R0
WINDOW 123 24 124 Left 2
WINDOW 39 0 0 Left 0
SYMATTR InstName V1
SYMATTR Value ""
SYMATTR Value2 AC 1
