Version 4
SHEET 1 2564 680
WIRE 544 -688 544 -720
WIRE 816 -688 544 -688
WIRE 544 -656 544 -688
WIRE 816 -656 816 -688
WIRE 544 -528 544 -576
WIRE 816 -528 816 -576
WIRE 640 -480 608 -480
WIRE 752 -480 640 -480
WIRE 176 -432 176 -464
WIRE 544 -400 544 -432
WIRE 640 -400 640 -480
WIRE 640 -400 544 -400
WIRE 816 -400 816 -432
WIRE 912 -400 816 -400
WIRE 1104 -400 912 -400
WIRE 1968 -352 1968 -432
WIRE 176 -320 176 -352
WIRE 1104 -320 1104 -400
WIRE 1104 -320 1024 -320
WIRE 1168 -320 1104 -320
WIRE 1024 -272 1024 -320
WIRE 1168 -272 1168 -320
WIRE 1968 -224 1968 -272
WIRE 1024 -160 1024 -208
WIRE 1024 -160 864 -160
WIRE 1168 -160 1168 -208
WIRE 1312 -160 1168 -160
WIRE 1344 -160 1312 -160
WIRE 1920 -160 1344 -160
WIRE 1312 -144 1312 -160
WIRE 1024 -96 1024 -160
WIRE 1168 -96 1168 -160
WIRE 1968 -96 1968 -128
WIRE 2144 -96 1968 -96
WIRE 2192 -96 2144 -96
WIRE 2256 -96 2192 -96
WIRE 1312 -48 1312 -80
WIRE 2144 -48 2144 -96
WIRE 1024 32 1024 -32
WIRE 1104 32 1024 32
WIRE 1168 32 1168 -32
WIRE 1168 32 1104 32
WIRE 1968 32 1968 -96
WIRE 2144 64 2144 32
WIRE 704 96 432 96
WIRE 1920 96 1856 96
WIRE 128 128 128 96
WIRE 912 128 816 128
WIRE 1104 128 1104 32
WIRE 1104 128 912 128
WIRE 1968 144 1968 128
WIRE 544 160 544 -400
WIRE 816 160 816 128
WIRE -176 176 -176 144
WIRE 320 176 320 144
WIRE 288 192 256 192
WIRE 432 208 432 96
WIRE 432 208 352 208
WIRE 480 208 432 208
WIRE 704 208 704 96
WIRE 752 208 704 208
WIRE 128 224 128 208
WIRE 288 224 128 224
WIRE 128 256 128 224
WIRE 1856 256 1856 96
WIRE 1968 256 1968 224
WIRE 1968 256 1856 256
WIRE -176 288 -176 256
WIRE -64 288 -176 288
WIRE 256 288 256 192
WIRE 544 288 544 256
WIRE 544 288 256 288
WIRE 1968 304 1968 256
WIRE -176 320 -176 288
WIRE -64 320 -64 288
WIRE 320 320 320 240
WIRE 544 320 544 288
WIRE 816 320 816 256
WIRE 128 384 128 336
WIRE 544 432 544 400
WIRE 816 432 816 400
WIRE 816 432 544 432
WIRE -176 448 -176 400
WIRE 544 464 544 432
FLAG 128 384 -12v
FLAG 128 96 +12v
FLAG 544 464 -12v
FLAG 912 -400 i_source
FLAG 912 128 i_sink
FLAG 544 -720 +12v
FLAG 320 320 -12v
FLAG 320 144 +12v
FLAG -64 320 0
FLAG -176 144 +12v
FLAG -176 448 -12v
FLAG 1312 -48 0
FLAG 2192 -96 triangle_out
FLAG 864 -160 square_in
FLAG 176 -320 0
FLAG 176 -464 square_in
FLAG 1968 -432 +12v
FLAG 1344 -160 tcap
FLAG 1968 304 -12v
FLAG 2144 64 0
SYMBOL res 112 112 R0
SYMATTR InstName R1
SYMATTR Value 7.5k
SYMBOL res 112 240 R0
SYMATTR InstName R2
SYMATTR Value 2.5k
SYMBOL OP07 320 144 R0
SYMATTR InstName U1
SYMBOL npn 480 160 R0
SYMATTR InstName Q1
SYMATTR Value 2N3904
SYMBOL npn 752 160 R0
SYMATTR InstName Q2
SYMATTR Value 2N3904
SYMBOL res 528 304 R0
SYMATTR InstName R3
SYMATTR Value 1k
SYMBOL res 800 304 R0
SYMATTR InstName R4
SYMATTR Value 1k
SYMBOL pnp 608 -432 R180
SYMATTR InstName Q3
SYMATTR Value 2N3906
SYMBOL pnp 752 -432 M180
SYMATTR InstName Q4
SYMATTR Value 2N3906
SYMBOL res 528 -672 R0
SYMATTR InstName R5
SYMATTR Value 1k
SYMBOL res 800 -672 R0
SYMATTR InstName R6
SYMATTR Value 1k
SYMBOL voltage -176 160 R0
SYMATTR InstName V1
SYMATTR Value 12
SYMBOL voltage -176 304 R0
SYMATTR InstName V2
SYMATTR Value 12
SYMBOL diode 1008 -272 R0
SYMATTR InstName D1
SYMATTR Value 1N5711
SYMBOL diode 1152 -272 R0
SYMATTR InstName D2
SYMATTR Value 1N5711
SYMBOL diode 1008 -96 R0
SYMATTR InstName D3
SYMATTR Value 1N5711
SYMBOL diode 1152 -96 R0
SYMATTR InstName D4
SYMATTR Value 1N5711
SYMBOL cap 1296 -144 R0
SYMATTR InstName C1
SYMATTR Value 1n
SYMATTR SpiceLine IC=0
SYMBOL voltage 176 -448 R0
WINDOW 3 -158 171 Left 2
WINDOW 123 0 0 Left 0
WINDOW 39 0 0 Left 0
SYMATTR Value PULSE(-1 1 0 1n 1n {(1/f)/2} {1/f})
SYMATTR InstName V3
SYMBOL njf 1920 -224 R0
SYMATTR InstName J1
SYMATTR Value J310
SYMBOL res 1952 128 R0
SYMATTR InstName R10
SYMATTR Value 1k
SYMBOL res 1952 -368 R0
SYMATTR InstName R7
SYMATTR Value 1k
SYMBOL res 2128 -64 R0
SYMATTR InstName R11
SYMATTR Value 1k
SYMBOL njf 1920 32 R0
SYMATTR InstName J2
SYMATTR Value J310
TEXT 96 568 Left 2 !.tran 0 {5/f} 0 {1/f/1000}
TEXT 1016 -952 Left 2 !.param f=2Meg
TEXT 1016 -904 Left 2 !.MODEL 1N5711 D (IS=19.7n N=1.51 BV=93.3 IBV=50n RS=6.27 CJO=1.8p VJ=.75 M=.333 XTI=2 EG=.69 TT=10.8p type=Schottky)
