Version 4
SHEET 1 2228 836
WIRE 336 -592 208 -592
WIRE 480 -592 336 -592
WIRE 864 -592 480 -592
WIRE 1648 -592 864 -592
WIRE 1648 -560 1648 -592
WIRE 208 -512 208 -592
WIRE 480 -512 480 -592
WIRE -288 -480 -288 -512
WIRE 1648 -448 1648 -480
WIRE 1648 -448 1552 -448
WIRE 1744 -448 1648 -448
WIRE 1552 -416 1552 -448
WIRE 1744 -416 1744 -448
WIRE -288 -368 -288 -400
WIRE -192 -368 -288 -368
WIRE 480 -368 480 -432
WIRE 1488 -368 480 -368
WIRE 1872 -368 1808 -368
WIRE -288 -336 -288 -368
WIRE -192 -336 -192 -368
WIRE 208 -256 208 -432
WIRE 1872 -256 1872 -368
WIRE 1872 -256 208 -256
WIRE -288 -224 -288 -256
WIRE 864 -144 864 -592
WIRE 208 -112 208 -256
WIRE 304 -112 208 -112
WIRE 480 -112 480 -368
WIRE 480 -112 368 -112
WIRE 1744 -112 1744 -320
WIRE 1904 -112 1744 -112
WIRE 2032 -112 1904 -112
WIRE 2080 -112 2032 -112
WIRE 1744 -64 1744 -112
WIRE 1904 -64 1904 -112
WIRE 2032 -64 2032 -112
WIRE 864 -16 864 -64
WIRE 208 0 208 -112
WIRE 304 0 208 0
WIRE 480 0 480 -112
WIRE 480 0 368 0
WIRE 1904 32 1904 0
WIRE 2032 32 2032 0
WIRE 1744 64 1744 16
WIRE 864 96 864 64
WIRE 864 96 768 96
WIRE 960 96 864 96
WIRE -240 128 -288 128
WIRE -128 128 -176 128
WIRE 768 128 768 96
WIRE 960 128 960 96
WIRE 1904 128 1904 96
WIRE 2032 128 2032 96
WIRE 208 192 208 0
WIRE 480 192 480 0
WIRE -288 240 -288 128
WIRE -288 240 -400 240
WIRE -240 240 -288 240
WIRE 144 240 -160 240
WIRE 624 240 544 240
WIRE 768 240 768 192
WIRE 768 240 624 240
WIRE 960 240 960 192
WIRE 1216 240 960 240
WIRE 1360 240 1216 240
WIRE 1552 240 1552 -320
WIRE 1552 240 1360 240
WIRE 1552 272 1552 240
WIRE 624 288 624 240
WIRE 768 288 768 240
WIRE 960 288 960 240
WIRE 1216 288 1216 240
WIRE 1360 288 1360 240
WIRE -400 320 -400 240
WIRE 208 336 208 288
WIRE 352 336 208 336
WIRE 480 336 480 288
WIRE 480 336 352 336
WIRE 768 384 768 352
WIRE 864 384 768 384
WIRE 960 384 960 352
WIRE 960 384 864 384
WIRE 1216 384 1216 352
WIRE 1360 384 1360 352
WIRE 1552 384 1552 352
WIRE 624 400 624 368
WIRE 864 416 864 384
WIRE -80 448 -80 400
WIRE 352 448 352 336
WIRE -400 464 -400 400
WIRE 1216 480 1216 448
WIRE 1360 480 1360 448
WIRE 288 496 112 496
WIRE 864 528 864 496
WIRE 112 544 112 496
WIRE 1216 576 1216 544
WIRE 1296 576 1216 576
WIRE 1360 576 1360 544
WIRE 1360 576 1296 576
WIRE 352 608 352 544
WIRE 1296 608 1296 576
WIRE 864 640 864 608
WIRE 112 672 112 624
WIRE 352 736 352 688
FLAG 352 736 -12v
FLAG -80 448 0
FLAG 336 -592 +12v
FLAG -192 -336 0
FLAG -288 -224 -12v
FLAG -288 -512 +12v
FLAG 112 672 0
FLAG -400 464 0
FLAG 1744 64 -12v
FLAG 2080 -112 square_out
FLAG 1296 608 0
FLAG 1552 384 -12v
FLAG 864 640 -12v
FLAG 624 400 0
FLAG 2032 128 0
FLAG 1904 128 0
SYMBOL npn 144 192 R0
SYMATTR InstName Q1
SYMATTR Value 2N3904
SYMBOL npn 544 192 M0
SYMATTR InstName Q2
SYMATTR Value 2N3904
SYMBOL npn 288 448 R0
SYMATTR InstName Q3
SYMATTR Value 2N3904
SYMBOL res 336 592 R0
SYMATTR InstName R1
SYMATTR Value 2k
SYMBOL res -96 304 R0
SYMATTR InstName R2
SYMATTR Value 1k
SYMBOL res -144 224 R90
WINDOW 0 0 56 VBottom 2
WINDOW 3 32 56 VTop 2
SYMATTR InstName R3
SYMATTR Value 1k
SYMBOL cap -176 112 R90
WINDOW 0 0 32 VBottom 2
WINDOW 3 32 32 VTop 2
SYMATTR InstName C1
SYMATTR Value 56p
SYMBOL diode 304 16 R270
WINDOW 0 32 32 VTop 2
WINDOW 3 0 32 VBottom 2
SYMATTR InstName D1
SYMATTR Value 1N4148
SYMBOL diode 368 -128 R90
WINDOW 0 0 32 VBottom 2
WINDOW 3 32 32 VTop 2
SYMATTR InstName D2
SYMATTR Value 1N4148
SYMBOL res 192 -528 R0
SYMATTR InstName R4
SYMATTR Value 4k
SYMBOL res 464 -528 R0
SYMATTR InstName R5
SYMATTR Value 4k
SYMBOL voltage -288 -496 R0
SYMATTR InstName V1
SYMATTR Value 12
SYMBOL voltage -288 -352 R0
SYMATTR InstName V2
SYMATTR Value 12
SYMBOL voltage 112 528 R0
SYMATTR InstName V3
SYMATTR Value -3.4
SYMBOL voltage -400 304 R0
WINDOW 3 -419 108 Left 2
WINDOW 123 0 0 Left 0
WINDOW 39 0 0 Left 0
SYMATTR InstName V4
SYMATTR Value PULSE(-0.5 0.5 0 500u 500u 1n 1m)
SYMBOL pnp 1488 -320 M180
WINDOW 0 -50 88 Left 2
WINDOW 3 -70 116 Left 2
SYMATTR InstName Q4
SYMATTR Value 2N3906
SYMBOL pnp 1808 -320 R180
WINDOW 0 -47 78 Left 2
WINDOW 3 -86 108 Left 2
SYMATTR InstName Q5
SYMATTR Value 2N3906
SYMBOL res 1632 -576 R0
SYMATTR InstName R6
SYMATTR Value 910
SYMBOL res 1728 -80 R0
SYMATTR InstName R7
SYMATTR Value 2.7k
SYMBOL diode 1200 288 R0
SYMATTR InstName D3
SYMATTR Value 1N4148
SYMBOL diode 1200 384 R0
SYMATTR InstName D4
SYMATTR Value 1N4148
SYMBOL diode 1200 480 R0
SYMATTR InstName D5
SYMATTR Value 1N4148
SYMBOL diode 1344 544 M180
WINDOW 0 24 64 Left 2
WINDOW 3 24 0 Left 2
SYMATTR InstName D6
SYMATTR Value 1N4148
SYMBOL diode 1344 448 M180
WINDOW 0 24 64 Left 2
WINDOW 3 24 0 Left 2
SYMATTR InstName D7
SYMATTR Value 1N4148
SYMBOL diode 1344 352 M180
WINDOW 0 24 64 Left 2
WINDOW 3 24 0 Left 2
SYMATTR InstName D8
SYMATTR Value 1N4148
SYMBOL res 1536 256 R0
SYMATTR InstName R8
SYMATTR Value 2.7k
SYMBOL diode 752 128 R0
SYMATTR InstName D9
SYMATTR Value 1N4148
SYMBOL diode 944 128 R0
SYMATTR InstName D10
SYMATTR Value 1N4148
SYMBOL diode 752 288 R0
SYMATTR InstName D11
SYMATTR Value 1N4148
SYMBOL diode 944 288 R0
SYMATTR InstName D12
SYMATTR Value 1N4148
SYMBOL res 848 -32 R0
SYMATTR InstName R9
SYMATTR Value 13k
SYMBOL res 848 -160 R0
SYMATTR InstName R10
SYMATTR Value 1.1k
SYMBOL res 848 400 R0
SYMATTR InstName R11
SYMATTR Value 13k
SYMBOL res 848 512 R0
SYMATTR InstName R12
SYMATTR Value 1.1k
SYMBOL res 608 272 R0
SYMATTR InstName R13
SYMATTR Value 499
SYMBOL schottky 1888 0 M180
WINDOW 0 24 64 Left 2
WINDOW 3 24 0 Left 2
SYMATTR InstName D13
SYMATTR Value MBRS1100
SYMATTR Description Diode
SYMATTR Type diode
SYMBOL diode 1888 96 M180
WINDOW 0 24 64 Left 2
WINDOW 3 24 0 Left 2
SYMATTR InstName D14
SYMATTR Value 1N4148
SYMBOL diode 2016 -64 R0
SYMATTR InstName D15
SYMATTR Value 1N4148
SYMBOL diode 2016 32 R0
SYMATTR InstName D16
SYMATTR Value MBRS1100
TEXT -820 710 Left 2 !.tran 0 5m 0 1u
