Version 4
SHEET 1 880 680
WIRE 80 -176 80 -208
WIRE 352 -80 352 -112
WIRE 80 -64 80 -96
WIRE 352 48 352 0
WIRE 288 96 128 96
WIRE 128 144 128 96
WIRE 352 208 352 144
WIRE 128 256 128 224
FLAG 352 208 0
FLAG 128 256 0
FLAG 352 -112 +5v
FLAG 80 -64 0
FLAG 80 -208 +5v
SYMBOL voltage 128 128 R0
WINDOW 123 0 0 Left 0
WINDOW 39 0 0 Left 0
SYMATTR InstName V1
SYMATTR Value SINE(0.6 10m 1k)
SYMBOL npn 288 48 R0
SYMATTR InstName Q1
SYMBOL res 336 -96 R0
SYMATTR InstName R1
SYMATTR Value 10k
SYMBOL voltage 80 -192 R0
SYMATTR InstName V2
SYMATTR Value 5
TEXT 494 288 Left 2 !.tran 0 5m 0 1u
